24
/Users/MasrulHuda/hsa.pdb
C          7.87900        0.38300        0.08400
C          6.62300        1.18400       -0.12600
C          5.35800        0.36200        0.05600
C          4.14900        1.23700       -0.19500
C          2.88600        0.43000        0.02400
C          1.68000        1.30300       -0.24700
C          0.41500        0.51500        0.01800
C         -0.78900        1.38900       -0.26200
C         -2.05500        0.62500        0.06100
C         -3.25600        1.50400       -0.21600
C         -4.52300        0.76900        0.17600
C         -5.74300        1.63900       -0.07400
C         -7.00400        0.83600        0.19300
C         -8.23400        1.63400       -0.19500
C         -9.47700        0.82800        0.11800
C        -10.70500        1.63400       -0.25000
C        -11.94900        0.83500        0.07600
C        -13.17700        1.64300       -0.28600
O          7.82000       -0.80700        0.36100
N          9.08400        0.98400       -0.03700
H          9.14600        1.98600       -0.27000
H          9.95200        0.44700        0.10400
O         -5.70700        2.76400        0.75500
H         -5.68900        3.53500        0.13300
